
#======================================================================
# CRYSTAL DATA
#----------------------------------------------------------------------
data_VESTA_phase_1

_chemical_name_common                  ''
_cell_length_a                         4.122788
_cell_length_b                         4.122788
_cell_length_c                         3.987531
_cell_angle_alpha                      90.000000
_cell_angle_beta                       90.000000
_cell_angle_gamma                      90.488243
_cell_volume                           67.775120
_space_group_name_H-M_alt              'P 1'
_space_group_IT_number                 1

loop_
_space_group_symop_operation_xyz
   'x, y, z'

loop_
   _atom_site_label
   _atom_site_occupancy
   _atom_site_fract_x
   _atom_site_fract_y
   _atom_site_fract_z
   _atom_site_adp_type
   _atom_site_B_iso_or_equiv
   _atom_site_type_symbol
   O1          1.0     0.965508     0.517091     0.500000    Biso  1.000000 O
   O2          1.0     0.482909     0.034492     0.500000    Biso  1.000000 O
   O3          1.0     0.477053     0.522947     0.000000    Biso  1.000000 O
   Ti1         1.0     0.517035     0.482965     0.500000    Biso  1.000000 Ti
   Ba1         1.0     0.000000     0.000000     0.000000    Biso  1.000000 Ba
